Version 4
SHEET 1 880 680
WIRE 208 32 -16 32
WIRE 352 32 304 32
WIRE -16 64 -16 32
FLAG -16 144 0
SYMBOL Digital\\srflop 256 -16 R0
WINDOW 39 -49 153 Left 2
SYMATTR InstName A1
SYMATTR SpiceLine Vhigh=15
SYMBOL voltage -16 48 R0
WINDOW 123 0 0 Left 0
WINDOW 39 0 0 Left 0
SYMATTR InstName V1
SYMATTR Value 14
TEXT -48 168 Left 2 !.tran 1
