Version 4
SHEET 1 1056 680
WIRE 224 -256 -64 -256
WIRE 528 -256 320 -256
WIRE -64 -80 -64 -256
WIRE 128 -80 -64 -80
WIRE 272 -80 272 -192
WIRE 272 -80 224 -80
WIRE 304 -80 272 -80
WIRE 528 -80 528 -256
WIRE 528 -80 384 -80
WIRE 176 32 176 -16
WIRE -64 192 -64 -80
WIRE -64 192 -432 192
WIRE 16 192 -64 192
WIRE 176 192 176 112
WIRE 176 192 96 192
WIRE 224 192 176 192
WIRE 528 192 528 -80
WIRE 528 192 416 192
WIRE 704 192 528 192
WIRE 976 192 704 192
WIRE -64 256 -64 192
WIRE 704 256 704 192
WIRE -432 272 -432 192
WIRE 976 288 976 192
WIRE 320 368 320 240
WIRE 704 368 704 336
WIRE 704 368 320 368
WIRE 704 400 704 368
WIRE -64 416 -64 320
WIRE -432 432 -432 352
WIRE 976 480 976 368
WIRE -432 576 -432 512
FLAG 704 480 0
FLAG -64 416 0
FLAG 976 480 0
FLAG -432 576 0
SYMBOL AutoGenerated\\LM337_N_TRANS 320 192 R0
SYMATTR InstName U1
SYMBOL res 112 176 R90
WINDOW 0 0 56 VBottom 2
WINDOW 3 32 56 VTop 2
SYMATTR InstName R1
SYMATTR Value 22
SYMBOL res 192 128 R180
WINDOW 0 36 76 Left 2
WINDOW 3 36 40 Left 2
SYMATTR InstName R2
SYMATTR Value 4.7k
SYMBOL res 288 -64 R270
WINDOW 0 32 56 VTop 2
WINDOW 3 0 56 VBottom 2
SYMATTR InstName R3
SYMATTR Value 470
SYMBOL npn 224 -16 M270
SYMATTR InstName Q1
SYMATTR Value BD139
SYMBOL pnp 224 -192 R270
SYMATTR InstName Q2
SYMATTR Value tip36c
SYMBOL res 688 240 R0
SYMATTR InstName R4
SYMATTR Value 1000
SYMBOL res 688 384 R0
SYMATTR InstName R5
SYMATTR Value 12000
SYMBOL cap -80 256 R0
SYMATTR InstName C1
SYMATTR Value 0.1µ
SYMBOL res 960 272 R0
SYMATTR InstName R6
SYMATTR Value 10
SYMBOL voltage -432 256 R0
WINDOW 123 0 0 Left 0
WINDOW 39 24 124 Left 2
SYMATTR InstName V1
SYMATTR Value SINE(0 0 50)
SYMBOL voltage -432 416 R0
WINDOW 123 0 0 Left 0
WINDOW 39 0 0 Left 0
SYMATTR InstName V2
SYMATTR Value -21
TEXT -488 -160 Left 2 !.tran 1
