Version 4
SHEET 1 1152 680
WIRE 192 -432 -192 -432
WIRE 512 -432 288 -432
WIRE -192 -240 -192 -432
WIRE 64 -240 -192 -240
WIRE 240 -240 240 -368
WIRE 240 -240 160 -240
WIRE 336 -240 240 -240
WIRE 512 -240 512 -432
WIRE 512 -240 416 -240
WIRE 112 -112 112 -176
WIRE -192 0 -192 -240
WIRE -192 0 -512 0
WIRE -80 0 -192 0
WIRE 112 0 112 -32
WIRE 112 0 0 0
WIRE 208 0 112 0
WIRE 512 0 512 -240
WIRE 512 0 432 0
WIRE 560 0 512 0
WIRE 688 0 640 0
WIRE 1072 0 688 0
WIRE -512 64 -512 0
WIRE 688 96 688 0
WIRE 1072 144 1072 0
WIRE -192 160 -192 0
WIRE 320 208 320 112
WIRE 688 208 688 176
WIRE 688 208 320 208
WIRE -512 224 -512 144
WIRE 688 240 688 208
WIRE -512 368 -512 304
WIRE -192 368 -192 224
WIRE 688 368 688 320
WIRE 880 368 880 240
WIRE 1072 368 1072 224
FLAG 688 368 0
FLAG -512 368 0
FLAG 1072 368 0
FLAG -192 368 0
FLAG 880 368 0
SYMBOL AutoGenerated\\LM317_TRANS 320 64 R0
SYMATTR InstName U1
SYMBOL res 704 192 R180
WINDOW 0 36 76 Left 2
WINDOW 3 36 40 Left 2
SYMATTR InstName R1
SYMATTR Value {R1}
SYMBOL res 704 336 R180
WINDOW 0 36 76 Left 2
WINDOW 3 36 40 Left 2
SYMATTR InstName R2
SYMATTR Value {R2}
SYMBOL voltage -512 48 R0
WINDOW 123 0 0 Left 0
WINDOW 39 24 124 Left 2
SYMATTR InstName V1
SYMATTR Value SINE(0 0 50)
SYMBOL voltage -512 208 R0
WINDOW 123 0 0 Left 0
WINDOW 39 0 0 Left 0
SYMATTR InstName V2
SYMATTR Value 21
SYMBOL res 16 -16 R90
WINDOW 0 0 56 VBottom 2
WINDOW 3 32 56 VTop 2
SYMATTR InstName R3
SYMATTR Value 47
SYMBOL res 128 -16 R180
WINDOW 0 36 76 Left 2
WINDOW 3 36 40 Left 2
SYMATTR InstName R4
SYMATTR Value 4.7k
SYMBOL pnp 160 -176 M270
SYMATTR InstName Q1
SYMATTR Value BD140
SYMBOL res 432 -256 R90
WINDOW 0 0 56 VBottom 2
WINDOW 3 32 56 VTop 2
SYMATTR InstName R5
SYMATTR Value 470
SYMBOL npn 192 -368 R270
SYMATTR InstName Q2
SYMATTR Value tip35c
SYMBOL cap 864 176 R0
SYMATTR InstName C1
SYMATTR Value 1µ
SYMBOL cap -208 160 R0
SYMATTR InstName C2
SYMATTR Value 0.1µ
SYMBOL res 656 -16 R90
WINDOW 0 0 56 VBottom 2
WINDOW 3 32 56 VTop 2
SYMATTR InstName R6
SYMATTR Value 0
SYMBOL res 1056 128 R0
SYMATTR InstName R7
SYMATTR Value 4
TEXT -944 16 Left 2 !.param R1=1000 R2=13k
TEXT -952 64 Left 2 !.tran 1
