Version 4
SHEET 1 996 680
WIRE 496 32 192 32
WIRE 976 32 720 32
WIRE 192 96 192 32
WIRE 976 128 976 32
WIRE 608 240 608 144
WIRE 976 240 976 208
WIRE 976 240 608 240
WIRE 192 256 192 176
WIRE 976 272 976 240
WIRE 192 400 192 336
WIRE 976 400 976 352
FLAG 976 400 0
FLAG 192 400 0
SYMBOL AutoGenerated\\LM317_TRANS 608 96 R0
SYMATTR InstName U1
SYMBOL res 992 224 R180
WINDOW 0 36 76 Left 2
WINDOW 3 36 40 Left 2
SYMATTR InstName R1
SYMATTR Value {R1}
SYMBOL res 992 368 R180
WINDOW 0 36 76 Left 2
WINDOW 3 36 40 Left 2
SYMATTR InstName R2
SYMATTR Value {R2}
SYMBOL voltage 192 80 R0
WINDOW 123 0 0 Left 0
WINDOW 39 24 124 Left 2
SYMATTR InstName V1
SYMATTR Value SINE(0 1 50)
SYMBOL voltage 192 240 R0
WINDOW 123 0 0 Left 0
WINDOW 39 0 0 Left 0
SYMATTR InstName V2
SYMATTR Value 21
TEXT 520 -120 Left 2 ;Vout=1.25(1+R2/R1)
TEXT -240 48 Left 2 !.param R1=1k R2=12k
TEXT -248 96 Left 2 !.tran 1
